[TITLE]
prueba

[JUNCTIONS]
 RED1                                436.3700
 SW1                                 427.2000
 SW2                                 427.5100
 SW/SD                               427.6000
 SD1                                 425.1000
 SW3                                 427.5100
 SW4                                 427.1600
 ZD4                                 447.0000
 HP28                                430.4900
 ZD5                                 424.9500
 ZD6                                 423.8000
 HP27                                418.6000
 ZD7                                 418.4000
 SO/ZD                               417.9300
 ZD3                                 417.9300
 ZD8                                 417.9200
 SO2                                 408.2100
 SO/SD                               406.4000
 ZD1                                 427.4800
 ZD2                                 420.9800
 SD11                                402.2800
 SD12                                402.2000
 SO3                                 406.4500
 SW/SO_Z                             407.3800
 SW/SO                               407.3800
 SW5                                 424.2800
 SW6                                 422.9800
 SW6_Z                               422.9800
 HP26                                422.3300
 SW7.2                               421.5000
 SD3                                 420.2000
 SD4                                 420.2000
 SD2                                 420.2000
 SD2.1                               418.0000
 SD5                                 420.2000
 SD6                                 419.7500
 HP9                                 406.9000  ;PK1
 SD9                                 406.0000
 SD10                                406.0000
 HP25                                420.3000
 SW8                                 423.1100
 SW/RO                               423.2000
 RO5                                 423.2000
 RO4                                 424.1400
 RO1                                 439.9800
 RO2                                 433.0300
 RO3                                 427.7200
 HP11                                417.8500
 SD7                                 413.2000
 HP10                                411.9700
 SD8                                 408.6000
 HP24                                423.3000
 HP23                                423.3000
 SW9                                 420.6000
 SW/AN                               420.6000
 HP22                                420.3100
 SW10                                420.0000
 SW/AN_Z                             421.0000
 AN1.1                               421.6000
 AN1                                 422.3000
 AN/PO                               425.0000
 PO3                                 428.8000
 HP14                                437.9700
 PO2                                 438.1000
 PO1                                 439.7200
 HP13                                442.9600
 AN2                                 426.2200
 HP15                                430.1000
 AN/JPII1                            433.4000
 AN/JPII2                            433.4000
 JPII2                               422.0500
 JPII2.1                             422.0500
 JPII3                               412.1200
 JP21                                447.0000
 HP16                                423.8600
 SW11                                418.3000
 SW12                                417.6000
 SW13                                413.2800
 SW14                                412.0600
 SW/JPII                             412.0600
 HP21                                412.0600
 SW15                                411.1800
 JPII4                               412.0600
 SW/P01                              410.4400
 SW16                                409.0000
 HP20                                408.8000
 AN5                                 413.9900
 AN3                                 423.9000
 HP32                                427.9600
 SW17                                408.3000
 SW/ZA                               407.0200
 AN4                                 418.8200
 SW/ZA_Z                             407.0200
 ZA1                                 409.9300
 HP19                                402.1000
 SW/LE                               401.9600
 SW18                                400.4000
 HP18                                396.6400
 SW19                                393.8000
 LE0                                 401.9600
 LE1                                 404.4900
 SD17                                389.8800
 SD16                                389.8000
 LA1                                 414.0000
 LA2                                 398.0300
 HP12                                393.2600
 LA3                                 391.0000
 SD/LA                               391.0000
 SD13                                399.3200
 HP8                                 391.4100
 SD14                                393.0000
 HP7                                 418.0000
 GO1.1                               411.5000
 GO16                                411.8500
 GO1                                 410.0000
 GO2                                 409.3000
 HP6                                 409.2100
 GO3                                 403.2400
 GO4                                 401.5000
 GO5                                 395.3000
 HP5                                 392.6000
 GO6                                 390.5300
 SD/GO1                              390.5000
 SD/GO1.1                            390.5000
 SD19                                390.2100
 SW/GO_Z                             390.2200
 SW/GO                               390.2200
 SD18                                389.5000
 SD/GO01                             389.4600
 SD/GO                               389.4600
 SW20                                390.2000
 SW/P02                              410.4300
 SD15                                389.9300
 SW/K01                              390.0000
 K1                                  390.0000
 SW/K02                              390.0000
 K2                                  390.0000
 SW21                                389.9200
 SW/OB                               389.1200
 HP17                                389.1200
 HP1                                 389.5000
 OB1                                 390.6900
 HP2                                 392.7600
 OB2                                 395.5000
 SW7                                 422.3300
 SW7.1                               421.8400
 P1                                  410.4400
 P2                                  410.4400
 LE2                                 404.9600
 n155                                389.0000
 n156                                427.4800
 GO01                                408.0500
 SO3.1                               404.0000
 SO1                                 409.1000
 K3                                  390.0000
 J1                                  436.3700
 J2                                  409.2000
 SD10.1                              406.4000
 J3                                  407.3800
 J4                                  407.3800
 J5                                  410.4400
 J7                                  410.4400
 P3                                  410.4400
 J6                                  389.1000
 J8                                  389.9000
 J10                                 389.2000
 J11                                 390.2200
 J12                                 390.2200
 J13                                 395.3000
 J14                                 401.5000
 J15                                 409.2100
 J16                                 389.8000
 J17                                 394.5000
 J18                                 394.5000
 J19                                 402.2000
 J20                                 408.8000
 J21                                 408.8000
 J22                                 408.8000
 J23                                 409.1000
 J24                                 409.0000
 J25                                 417.9000
 J27                                 410.4400
 J28                                 410.4300
 J30                                 437.9700
 J31                                 437.9700
 J32                                 425.0000
 J34                                 423.2000
 J35                                 423.2000
 J36                                 436.3700
 J37                                 427.2000
 J38                                 427.2000
 J41                                 427.1600
 J42                                 430.0000

[RESERVOIRS]
 R1                                  477.0000                                 ;Ludwikowice
 R2                                  470.0000                                 ;Jugow
 R3                                  438.2000                                

[TANKS]

[PIPES]
 p1                              RED1                            J37                                 218.2000     131.0000       0.6984       1.9000       
 p2                              SW1                             SW2                                 296.4000     131.0000       0.0250       2.5000       
 p4                              SW/SD                           SD1                                  43.9200      41.0000       9.1704       0.4000       
 p5                              SW/SD                           SW3                                  30.1400     250.0000       9.8697       0.0000       
 p6                              SW3                             J41                                  36.2500     184.0000       6.3849       0.4000       
 p7                              ZD4                             HP28                                246.8000      51.0000       0.3208       2.1000       
 p8                              HP28                            ZD5                                  69.0500     100.0000       0.4442       0.0000       
 p9                              ZD6                             HP27                                115.1000     100.0000       4.7780       0.0000       
 p10                             ZD5                             ZD6                                  26.8800      51.0000       9.0743       0.3000       
 p11                             HP27                            ZD7                                   5.2550     100.0000       6.5324       0.0000       
 p12                             ZD7                             J25                                  13.1500      90.0000       9.9385       0.1000       
 p15                             SO2                             SO/SD                                82.9300     131.0000       2.1496       0.8000       
 p16                             ZD1                             ZD2                                 234.7000     131.0000       9.0942       2.0000       
 p17                             ZD2                             ZD3                                 154.0000     131.0000       9.8340       1.4000       
 p18                             SO2                             SD11                                264.1000     100.0000       9.4571       0.0000       
 p19                             SD11                            SD12                                 88.5500      74.0000       9.6926       0.9000       
 p20                             SO/SD                           SO3                                   4.1450      90.0000       9.3971       0.1000       
 p21                             SO3                             SW/SO_Z                             196.3000      90.0000       2.4605       1.7000       
 p23                             SW4                             SW5                                 268.7000     250.0000       6.6496       0.0000       
 p24                             SW5                             SW6                                 159.0000     250.0000       8.3458       0.0000       
 p26                             SW6_Z                           HP26                                 32.4900      74.0000       2.0847       0.4000       
 p27                             HP26                            SW7.2                                66.9200      80.0000       9.5348       0.0000       
 p28                             SW7.2                           SD3                                  28.2900      90.0000       6.8702       0.3000       
 p31                             SD2                             SD2.1                                 7.0380      90.0000       3.0651       0.1000       
 p33                             SD5                             SD6                                  12.0200      90.0000       3.4960       0.1000       
 p34                             HP9                             SD9                                 286.5000      80.0000       0.3580       0.0000       
 p35                             SD9                             SD10                                  1.2970      90.0000       2.5292       0.1000       
 p36                             SD10                            SD10.1                               10.1600      90.0000       0.6851       0.1000       
 p37                             SW6                             HP25                                123.2000     250.0000       1.0449       0.0000       
 p38                             SW8                             J34                                  31.7000     184.0000       9.1734       0.0000       
 p39                             RO5                             RO4                                  26.4400     131.0000       6.0513       0.0000       
 p40                             RO1                             RO2                                 137.0000      80.0000       9.7784       0.0000       
 p41                             RO4                             RO3                                 106.2000      80.0000       5.9065       0.0000       
 p42                             RO2                             RO3                                 122.1000      80.0000       0.2419       0.0000       
 p43                             SD6                             HP11                                155.5000      80.0000       1.5905       0.0000       
 p44                             HP11                            SD7                                 296.9000      80.0000       8.7715       0.0000       
 p45                             SD7                             HP10                                156.6000      80.0000       2.5193       0.0000       
 p46                             HP10                            SD8                                 176.5000      80.0000       1.2871       0.0000       
 p47                             SD8                             HP9                                 178.8000      80.0000       0.6244       0.0000       
 p48                             HP25                            SW8                                 107.6000     250.0000       9.7824       0.0000       
 p49                             J35                             HP24                                 47.7400     184.0000       0.1666       0.5000       
 p50                             HP24                            HP23                                169.5000     184.0000       0.0350       1.5000       
 p51                             HP23                            SW9                                 130.5600     184.0000       9.8726       1.2000       
 p55                             HP22                            SW10                                  6.7020     184.0000       6.0141       0.1000       
 p57                             SW/AN_Z                         AN1.1                                 1.8740     131.0000       9.1122       0.0000       
 p58                             AN1.1                           AN1                                   5.9220     150.0000       7.8525       0.0000       
 p59                             AN1                             AN/PO                                47.0500     150.0000       8.8622       0.0000       
 p60                             J32                             PO3                                  50.8900     100.0000       0.8863       0.0000       
 p61                             PO3                             J31                                  77.2000      74.0000       7.5667       0.8000       
 p62                             J30                             PO2                                   2.2540      74.0000       3.5358       0.1000       
 p63                             PO2                             PO1                                  83.2700     100.0000       0.4604       0.0000       
 p64                             PO1                             HP13                                 99.7200     100.0000       9.6224       0.0000       
 p65                             AN/PO                           AN2                                  89.5300     150.0000       8.1533       0.0000       
 p66                             AN2                             HP15                                100.4000     150.0000       0.9878       0.0000       
 p67                             HP15                            AN/JPII1                             81.6800     100.0000       7.8619       0.0000       
 p68                             AN/JPII1                        AN/JPII2                              0.8723     100.0000       2.3196       0.0000       
 p70                             JPII2                           JPII2.1                              26.8900      50.0000       7.8529       0.0000       
 p71                             JPII2                           JPII3                               100.7000      80.0000       7.4886       0.0000       
 p72                             AN/JPII1                        JP21                                119.2000      50.0000       7.3060       0.0000       
 p73                             AN/JPII2                        HP16                                138.5000      80.0000       5.9350       0.0000       
 p74                             SW10                            SW11                                 70.0900     250.0000       0.6413       0.0000       
 p75                             SW12                            SW13                                234.7000     250.0000       2.5689       0.0000       
 p76                             SW11                            SW12                                 19.3300     184.0000       2.0919       0.3000       
 p77                             SW13                            SW14                                101.0000     184.0000       3.7551       1.0000       
 p79                             SW/JPII                         HP21                                  1.1870     184.0000       6.5333       0.1000       
 p80                             HP21                            SW15                                 12.4600     184.0000       9.8292       0.2000       
 p83                             JPII4                           JPII3                                 5.2220      74.0000       2.3912       0.1000       
 p84                             SW15                            SW/P01                               55.7600     250.0000       9.4469       0.0000       
 p85                             SW16                            J20                                  17.6200     184.0000       3.4943       0.2000       
 p86                             J22                             AN5                                 110.0000      90.0000       8.9249       1.0000       
 p87                             AN3                             HP32                                107.0000      90.0000       4.7571       1.0000       
 p89                             J21                             SW17                                 25.1700     184.0000       0.0280       0.2000       
 p90                             SW17                            J3                                   37.8800     250.0000       2.2583       0.0000       
 p91                             J4                              SW/ZA                                19.5200     250.0000       8.4015       0.0000       
 p92                             AN5                             AN4                                  98.3200      90.0000       8.2140       0.9000       
 p93                             AN4                             AN3                                 111.0000      90.0000       1.5271       1.0000       
 p95                             SW/ZA_Z                         ZA1                                  51.9100      51.0000       0.8528       0.4000       
 p96                             SW/ZA                           HP19                                232.6000     250.0000       6.3100       0.0000       
 p97                             HP19                            SW/LE                                10.5500     250.0000       9.2622       0.0000       
 p98                             SW/LE                           SW18                                 83.4000     250.0000       3.9489       0.0000       
 p99                             SW18                            HP18                                148.3000     250.0000       3.3803       0.0000       
 p100                            HP18                            J17                                 106.5600     250.0000       8.1714       0.0000       
 p102                            LE0                             LE1                                  49.4700      51.0000       5.9289       0.4000       
 p103                            SD17                            SD16                                 45.1900      51.0000       9.8516       0.3000       
 p105                            LA1                             LA2                                 222.9000      51.0000       9.9985       1.9000       
 p106                            HP12                            LA3                                 173.9000      51.0000       7.5987       1.5000       
 p107                            LA3                             SD/LA                                 2.1050      51.0000       5.4802       0.1000       
 p108                            J19                             SD13                                227.7000     125.0000       8.8949       0.0000       
 p109                            HP8                             SD/LA                                44.9100     150.0000       0.8527       0.0000       
 p110                            SD13                            SD14                                220.1000     125.0000       7.5660       0.0000       
 p111                            SD14                            HP8                                 190.7000     125.0000       7.5484       0.0000       
 p112                            HP7                             GO1.1                               199.6000     100.0000       2.8922       0.0000       
 p113                            GO16                            GO1                                  63.1800      50.0000       1.8197       0.0000       
 p114                            GO1.1                           GO1                                  20.9900     100.0000       0.1891       0.0000       
 p115                            GO1                             GO2                                  69.7100     100.0000       8.4613       0.0000       
 p116                            GO2                             HP6                                  18.3700     100.0000       3.5493       0.0000       
 p117                            J15                             GO3                                 140.8000      74.0000       0.3192       1.2000       
 p118                            GO3                             J14                                 128.4000      74.0000       0.4416       1.1000       
 p119                            GO4                             GO5                                 126.3000      90.0000       9.5659       1.1000       
 p120                            J13                             HP5                                  40.0000     131.0000       9.5651       0.4000       
 p123                            SD/GO1.1                        SD19                                  8.4530     131.0000       9.9205       0.1000       
 p124                            HP5                             GO6                                 125.7000     131.0000       3.5153       1.1000       
 p125                            SD/GO1                          SW/GO_Z                              28.5700     131.0000       2.1439       0.3000       
 p127                            SD18                            SD/GO01                              49.9500     131.0000       6.5628       0.5000       
 p129                            SW20                            J11                                 223.4000     147.0000       9.9939       1.9000       
 p130                            SW/P02                          SW16                                 65.7400     250.0000       8.3311       0.0000       
 p132                            SD/LA                           SD15                                 78.0900     150.0000       0.5263       0.0000       
 p133                            J16                             SD15                                 21.3600     100.0000       7.9964       0.0000       
 p134                            SD15                            SD/GO                                83.1300     150.0000       9.3287       0.0000       
 p135                            SD/GO                           SD19                                 63.8300     150.0000       6.5000       0.0000       
 p136                            J12                             SW/K01                               63.3900     184.0000       3.3927       0.6000       
 p137                            K1                              SW/K01                                6.4720     131.0000       2.6649       0.1000 CV    
 p138                            K2                              SW/K02                                7.9550     131.0000       9.5983       0.1000 CV    
 p139                            SW/K02                          SW21                                 88.8900     250.0000       0.7999       0.0000       
 p140                            J8                              SW/OB                                68.7800     184.0000       5.1696       0.7000       
 p142                            HP17                            HP1                                  73.7900      90.0000       9.2959       0.7000       
 p143                            HP1                             OB1                                  80.7300      90.0000       2.0136       0.7000       
 p144                            OB1                             HP2                                 143.5000      90.0000       9.7487       1.2000       
 p145                            HP2                             OB2                                 149.3000      81.4000       0.9243       0.0000       
 p146                            HP26                            SW7                                   1.1610      51.0000       6.3580       0.1000       
 p147                            SW7                             SW7.1                                68.8200      51.0000       9.6021       0.6000       
 p150                            J28                             P3                                   11.2100      90.0000       0.3881       0.1000 CLOSED
 p151                            LE1                             LE2                                  61.7500      51.0000       3.3972       0.6000       
 p152                            J6                              n155                                  9.9900     184.0000       2.7294       0.1000       
 p153                            ZD1                             n156                                  6.6270     131.0000       0.8535       0.1000       
 p154                            SW19                            SW20                                135.9000     250.0000       9.3479       0.0000       
 p155                            GO2                             GO01                                 46.2000     100.0000       1.8021       0.0000       
 p157                            LA2                             HP12                                111.6000      51.0000       0.3672       1.0000       
 p158                            SO3                             SO3.1                                 3.8760      90.0000       7.2393       0.1000       
 p159                            ZD8                             J23                                 611.8000     131.0000       4.6157       5.1000       
 p162                            K3                              SW/K01                                4.1530     131.0000       1.1161       0.1000       
 p163                            K1                              SW/K02                                6.6990     131.0000       6.9275       0.1000       
 p227                            AN3                             HP16                                  5.3000      90.0000       6.4774       0.1000       
 P88                             R1                              J36                                   0.3800     131.0000       5.0576       0.0000       
 P104                            R2                              n156                                  5.7000     131.0000       1.7011       0.0000       
 P131                            R3                              n155                                  5.3700     184.0000       6.6083       0.0000       
 P53                             SO2                             J24                                  21.1400     131.0000       5.1515       0.0000       
 P25                             J5                              J7                                    0.2000      90.0000       1.1505       0.0000       
 P81                             J7                              P1                                    1.0000      90.0000       9.1174       0.0000       
 P122                            P3                              P2                                    1.0000      90.0000       7.0165       0.2000       
 P22                             J10                             SW21                                 12.4800     184.0000       0.0315       0.0000       
 P121                            J18                             SW19                                 58.7200     250.0000       9.8033       0.0000       
 P126                            J27                             J7                                   10.6100      90.0000       9.5193       0.1000 CLOSED
 P148                            J38                             SW1                                   0.9100     131.0000       7.9480       0.1000       
 P69                             AN/JPII2                        J42                                  31.7000      80.0000       7.2985       0.0000       

[PUMPS]
 PMP2                            P2                              J5                               HEAD C1
 PMP1                            P3                              J7                               HEAD C1

[VALVES]
 V1                              J1                              RED1                                150.0000   PRV      39.1000       0.0000
 V2                              SO1                             J2                                  150.0000   PRV      44.7000       0.0000
 V3                              K3                              K2                                  150.0000   PRV      45.0000       0.0000
 Z_SD/GO                         SD/GO1.1                        SD/GO1                              150.0000   TCV       0.0000       0.2000
 Z_SW/SO3                        SW/SO_Z                         SW/SO                               100.0000   TCV       0.0000       0.2000
 Z_SO/SD_PN                      SD10.1                          SO/SD                               100.0000   TCV       0.0000       0.2000
 Z_SW/SO1                        J3                              SW/SO                               250.0000   TCV       0.0000       0.2000
 Z_SW/SO2                        SW/SO                           J4                                  250.0000   TCV       0.0000       0.2000
 Z9                              SW6_Z                           SW6                                  80.0000   TCV       0.0000       0.2000
 Z4                              SW/OB                           HP17                                 80.0000   TCV       0.0000       0.2000
 Z5                              J6                              SW/OB                               200.0000   TCV       0.0000       0.2000
 Z7                              J8                              J10                                 200.0000   TCV       0.0000       0.2000
 Z8                              SW/GO                           SW/GO_Z                             150.0000   TCV       0.0000       0.2000
 Z10                             J12                             SW/GO                               200.0000   TCV       0.0000       0.2000
 Z11                             SW/GO                           J11                                 150.0000   TCV       0.0000       0.2000
 Z12                             SD/GO1                          GO6                                 150.0000   TCV       0.0000       0.2000
 Z13                             J13                             GO5                                 150.0000   TCV       0.0000       0.2000
 Z14                             J14                             GO4                                 100.0000   TCV       0.0000       0.2000
 Z15                             J15                             HP6                                 100.0000   TCV       0.0000       0.2000
 Z16                             SD/GO01                         SD/GO                               150.0000   TCV       0.0000       0.2000
 Z17                             SD16                            J16                                 100.0000   TCV       0.0000       0.2000
 Z18                             J18                             J17                                 250.0000   TCV       0.0000       0.2000
 Z19                             LE0                             SW/LE                                50.0000   TCV       0.0000       0.2000
 Z20                             J19                             SD12                                100.0000   TCV       0.0000       0.2000
 Z21                             SW/ZA                           SW/ZA_Z                              50.0000   TCV       0.0000       0.2000
 Z22                             J22                             HP20                                 80.0000   TCV       0.0000       0.2000
 Z23                             J21                             HP20                                200.0000   TCV       0.0000       0.2000
 Z24                             HP20                            J20                                 200.0000   TCV       0.0000       0.2000
 Z25                             J23                             SO1                                 150.0000   TCV       0.0000       0.2000
 Z26                             J2                              J24                                 150.0000   TCV       0.0000       0.2000
 Z27                             J25                             SO/ZD                               100.0000   TCV       0.0000       0.2000
 Z28                             ZD3                             SO/ZD                               100.0000   TCV       0.0000       0.2000
 Z29                             SO/ZD                           ZD8                                 100.0000   TCV       0.0000       0.2000
 Z_PO                            SW/P02                          SW/P01                              250.0000   TCV       0.0000       0.2000
 Z_PO1                           J27                             SW/P01                              100.0000   TCV       0.0000       0.2000
 Z_PO2                           J28                             SW/P02                              100.0000   TCV       0.0000       0.2000
 Z34                             SW/JPII                         SW14                                200.0000   TCV       0.0000       0.2000
 Z35                             JPII4                           SW/JPII                              80.0000   TCV       0.0000       0.2000
 Z36                             J31                             HP14                                 80.0000   TCV       0.0000       0.2000
 Z37                             J30                             HP14                                 80.0000   TCV       0.0000       0.2000
 Z38                             J32                             AN/PO                               100.0000   TCV       0.0000       0.2000
 Z39                             HP22                            SW/AN                               200.0000   TCV       0.0000       0.2000
 Z40                             SW/AN_Z                         SW/AN                               150.0000   TCV       0.0000       0.2000
 Z41                             SW9                             SW/AN                               200.0000   TCV       0.0000       0.2000
 Z42                             SW/RO                           RO5                                 150.0000   TCV       0.0000       0.2000
 Z43                             J35                             SW/RO                               200.0000   TCV       0.0000       0.2000
 Z44                             SW/RO                           J34                                 200.0000   TCV       0.0000       0.2000
 Z45                             SD4                             SD3                                  80.0000   TCV       0.0000       0.2000
 Z46                             SD5                             SD4                                  80.0000   TCV       0.0000       0.2000
 Z47                             SD4                             SD2                                  80.0000   TCV       0.0000       0.2000
 Z48                             J36                             J1                                  150.0000   TCV       0.0000       0.2000
 Z49                             J37                             J38                                 150.0000   TCV       0.0000       0.2000
 Z50                             SW2                             SW/SD                               150.0000   TCV       0.0000       0.2000
 Z51                             SW4                             J41                                 200.0000   TCV       0.0000       0.2000

[DEMANDS]
 RED1                                  0.000000  PT1                            
 SW1                                   0.003889  PT1                            
 SW2                                   0.000000  PT1                            
 SW/SD                                 0.000000  PT1                            
 SD1                                   0.002639  PT1                            
 SW3                                   0.000000  PT1                            
 SW4                                   0.019167  PT1                            
 ZD4                                   0.000000  PT1                            
 HP28                                  0.008750  PT1                            
 ZD5                                   0.023657  PT1                            
 ZD6                                   0.009815  PT1                            
 HP27                                  0.004120  PT1                            
 ZD7                                   0.000000  PT1                            
 SO/ZD                                 0.000000  PT1                            
 ZD3                                   0.015926  PT1                            
 ZD8                                   0.000000  PT1                            
 SO2                                   0.068148  PT1                            
 SO/SD                                 0.000000  PT1                            
 ZD1                                   0.012454  PT1                            
 ZD2                                   0.015185  PT1                            
 SD11                                  0.014537  PT1                            
 SD12                                  0.011667  PT1                            
 SO3                                   0.032731  PT1                            
 SW/SO_Z                               0.098796  PT1                            
 SW/SO                                 0.018287  PT1                            
 SW5                                   0.098565  PT1                            
 SW6                                   0.022639  PT1                            
 SW6_Z                                 0.000000  PT1                            
 HP26                                  0.016759  PT1                            
 SW7.2                                 0.000000  PT1                            
 SD3                                   0.000000  PT1                            
 SD4                                   0.000000  PT1                            
 SD2                                   0.000000  PT1                            
 SD2.1                                 0.000000  PT1                            
 SD5                                   0.000000  PT1                            
 SD6                                   0.009861  PT1                            
 HP9                                   0.057037  PT1                            
 SD9                                   0.010694  PT1                            
 SD10                                  0.000000  PT1                            
 HP25                                  0.085787  PT1                            
 SW8                                   0.041019  PT1                            
 SW/RO                                 0.011343  PT1                            
 RO5                                   0.000000  PT1                            
 RO4                                   0.036944  PT1                            
 RO1                                   0.021898  PT1                            
 RO2                                   0.050046  PT1                            
 RO3                                   0.030787  PT1                            
 HP11                                  0.018426  PT1                            
 SD7                                   0.013611  PT1                            
 HP10                                  0.007917  PT1                            
 SD8                                   0.034815  PT1                            
 HP24                                  0.032546  PT1                            
 HP23                                  0.010167  PT1                            
 SW9                                   0.000000  PT1                            
 SW/AN                                 0.000000  PT1                            
 HP22                                  0.026019  PT1                            
 SW10                                  0.016250  PT1                            
 SW/AN_Z                               0.000000  PT1                            
 AN1.1                                 0.000000  PT1                            
 AN1                                   0.007130  PT1                            
 AN/PO                                 0.018935  PT1                            
 PO3                                   0.013148  PT1                            
 HP14                                  0.014861  PT1                            
 PO2                                   0.009769  PT1                            
 PO1                                   0.020741  PT1                            
 HP13                                  0.009444  PT1                            
 AN2                                   0.049722  PT1                            
 HP15                                  0.009630  PT1                            
 AN/JPII1                              0.022685  PT1                            
 AN/JPII2                              0.002917  PT1                            
 JPII2                                 0.000000  PT1                            
 JPII2.1                               0.057130  PT1                            
 JPII3                                 0.000000  PT1                            
 JP21                                  0.000000  PT1                            
 HP16                                  0.000000  PT1                            
 SW11                                  0.004259  PT1                            
 SW12                                  0.075880  PT1                            
 SW13                                  0.152176  PT1                            
 SW14                                  0.035972  PT1                            
 SW/JPII                               0.000000  PT1                            
 HP21                                  0.000000  PT1                            
 SW15                                  0.057824  PT1                            
 JPII4                                 0.000000  PT1                            
 SW/P01                                0.000000  PT1                            
 SW16                                  0.012500  PT1                            
 HP20                                  0.014398  PT1                            
 AN5                                   0.017315  PT1                            
 AN3                                   0.018981  PT1                            
 HP32                                  0.026759  PT1                            
 SW17                                  0.003667  PT1                            
 SW/ZA                                 0.098796  PT1                            
 AN4                                   0.035694  PT1                            
 SW/ZA_Z                               0.000000  PT1                            
 ZA1                                   0.039491  PT1                            
 HP19                                  0.121944  PT1                            
 SW/LE                                 0.254167  PT1                            
 SW18                                  0.123194  PT1                            
 HP18                                  0.116806  PT1                            
 SW19                                  0.038519  PT1                            
 LE0                                   0.000000  PT1                            
 LE1                                   0.020139  PT1                            
 SD17                                  0.043380  PT1                            
 SD16                                  0.005000  PT1                            
 LA1                                   0.006806  PT1                            
 LA2                                   0.012731  PT1                            
 HP12                                  0.004769  PT1                            
 LA3                                   0.006528  PT1                            
 SD/LA                                 0.009815  PT1                            
 SD13                                  0.073935  PT1                            
 HP8                                   0.015602  PT1                            
 SD14                                  0.021157  PT1                            
 HP7                                   0.067685  PT1                            
 GO1.1                                 0.000000  PT1                            
 GO16                                  0.068657  PT1                            
 GO1                                   0.000000  PT1                            
 GO2                                   0.000000  PT1                            
 HP6                                   0.080741  PT1                            
 GO3                                   0.029593  PT1                            
 GO4                                   0.020648  PT1                            
 GO5                                   0.000000  PT1                            
 HP5                                   0.020463  PT1                            
 GO6                                   0.000000  PT1                            
 SD/GO1                                0.000000  PT1                            
 SD/GO1.1                              0.000000  PT1                            
 SD19                                  0.004815  PT1                            
 SW/GO_Z                               0.000000  PT1                            
 SW/GO                                 0.011481  PT1                            
 SD18                                  0.012315  PT1                            
 SD/GO01                               0.000000  PT1                            
 SD/GO                                 0.030000  PT1                            
 SW20                                  0.015694  PT1                            
 SW/P02                                0.045046  PT1                            
 SD15                                  0.076611  PT1                            
 SW/K01                                0.000000  PT1                            
 K1                                    0.000000  PT1                            
 SW/K02                                0.000000  PT1                            
 K2                                    0.000000  PT1                            
 SW21                                  0.024583  PT1                            
 SW/OB                                 0.000000  PT1                            
 HP17                                  0.029074  PT1                            
 HP1                                   0.020463  PT1                            
 OB1                                   0.007315  PT1                            
 HP2                                   0.002870  PT1                            
 OB2                                   0.102546  PT1                            
 SW7                                   0.031759  PT1                            
 SW7.1                                 0.026667  PT1                            
 P1                                    0.000000  PT1                            
 P2                                    0.000000  PT1                            
 LE2                                   0.045926  PT1                            
 n155                                  0.000000  PT1                            
 n156                                  0.000000  PT1                            
 GO01                                  0.000000  PT1                            
 SO3.1                                 0.000000  PT1                            
 SO1                                   0.000000  PT1                            
 K3                                    0.000000  PT1                            
 J1                                    0.000000                                
 J2                                    0.000000                                
 SD10.1                                0.000000                                
 J3                                    0.000000                                
 J4                                    0.000000                                
 J5                                    0.000000                                
 J7                                    0.000000                                
 P3                                    0.000000                                
 J6                                    0.000000                                
 J8                                    0.000000                                
 J10                                   0.000000                                
 J11                                   0.000000                                
 J12                                   0.000000                                
 J13                                   0.000000                                
 J14                                   0.000000                                
 J15                                   0.000000                                
 J16                                   0.000000                                
 J17                                   0.000000                                
 J18                                   0.000000                                
 J19                                   0.000000                                
 J20                                   0.000000                                
 J21                                   0.000000                                
 J22                                   0.000000                                
 J23                                   0.000000                                
 J24                                   0.000000                                
 J25                                   0.000000                                
 J27                                   0.000000                                
 J28                                   0.000000                                
 J30                                   0.000000                                
 J31                                   0.000000                                
 J32                                   0.000000                                
 J34                                   0.000000                                
 J35                                   0.000000                                
 J36                                   0.000000                                
 J37                                   0.000000                                
 J38                                   0.000000                                
 J41                                   0.000000                                
 J42                                   0.000000                                

[EMITTERS]
 RED1                                  0.001100
 SW1                                   0.001100
 SW2                                   0.001100
 SW/SD                                 0.001100
 SD1                                   0.001100
 SW3                                   0.001100
 SW4                                   0.001100
 ZD4                                   0.001100
 HP28                                  0.001100
 ZD5                                   0.001100
 ZD6                                   0.001100
 HP27                                  0.001100
 ZD7                                   0.001100
 SO/ZD                                 0.001100
 ZD3                                   0.001100
 ZD8                                   0.001100
 SO2                                   0.001100
 SO/SD                                 0.001100
 ZD1                                   0.001100
 ZD2                                   0.001100
 SD11                                  0.001100
 SD12                                  0.001100
 SO3                                   0.001100
 SW/SO_Z                               0.001100
 SW/SO                                 0.001100
 SW5                                   0.001100
 SW6                                   0.001100
 SW6_Z                                 0.001100
 HP26                                  0.001100
 SW7.2                                 0.001100
 SD3                                   0.001100
 SD4                                   0.001100
 SD2                                   0.001100
 SD2.1                                 0.001100
 SD5                                   0.001100
 SD6                                   0.001100
 HP9                                   0.001100
 SD9                                   0.001100
 SD10                                  0.001100
 HP25                                  0.001100
 SW8                                   0.001100
 SW/RO                                 0.001100
 RO5                                   0.001100
 RO4                                   0.001100
 RO1                                   0.001100
 RO2                                   0.001100
 RO3                                   0.001100
 HP11                                  0.001100
 SD7                                   0.001100
 HP10                                  0.001100
 SD8                                   0.001100
 HP24                                  0.001100
 HP23                                  0.001100
 SW9                                   0.001100
 SW/AN                                 0.001100
 HP22                                  0.001100
 SW10                                  0.001100
 SW/AN_Z                               0.001100
 AN1.1                                 0.001100
 AN1                                   0.001100
 AN/PO                                 0.001100
 PO3                                   0.001100
 HP14                                  0.001100
 PO2                                   0.001100
 PO1                                   0.001100
 HP13                                  0.001100
 AN2                                   0.001100
 HP15                                  0.001100
 AN/JPII1                              0.001100
 AN/JPII2                              0.001100
 JPII2                                 0.001100
 JPII2.1                               0.001100
 JPII3                                 0.001100
 JP21                                  0.001100
 HP16                                  0.001100
 SW11                                  0.001100
 SW12                                  0.001100
 SW13                                  0.001100
 SW14                                  0.001100
 SW/JPII                               0.001100
 HP21                                  0.001100
 SW15                                  0.001100
 JPII4                                 0.001100
 SW/P01                                0.001100
 SW16                                  0.001100
 HP20                                  0.001100
 AN5                                   0.001100
 AN3                                   0.001100
 HP32                                  0.001100
 SW17                                  0.001100
 SW/ZA                                 0.001100
 AN4                                   0.001100
 SW/ZA_Z                               0.001100
 ZA1                                   0.001100
 HP19                                  0.001100
 SW/LE                                 0.001100
 SW18                                  0.001100
 HP18                                  0.001100
 SW19                                  0.001100
 LE0                                   0.001100
 LE1                                   0.001100
 SD17                                  0.001100
 SD16                                  0.001100
 LA1                                   0.001100
 LA2                                   0.001100
 HP12                                  0.001100
 LA3                                   0.001100
 SD/LA                                 0.001100
 SD13                                  0.001100
 HP8                                   0.001100
 SD14                                  0.001100
 HP7                                   0.001100
 GO1.1                                 0.001100
 GO16                                  0.001100
 GO1                                   0.001100
 GO2                                   0.001100
 HP6                                   0.001100
 GO3                                   0.001100
 GO4                                   0.001100
 GO5                                   0.001100
 HP5                                   0.001100
 GO6                                   0.001100
 SD/GO1                                0.001100
 SD/GO1.1                              0.001100
 SD19                                  0.001100
 SW/GO_Z                               0.001100
 SW/GO                                 0.001100
 SD18                                  0.001100
 SD/GO01                               0.001100
 SD/GO                                 0.001100
 SW20                                  0.001100
 SW/P02                                0.001100
 SD15                                  0.001100
 SW/K01                                0.001100
 K1                                    0.001100
 SW/K02                                0.001100
 K2                                    0.001100
 SW21                                  0.001100
 SW/OB                                 0.001100
 HP17                                  0.001100
 HP1                                   0.001100
 OB1                                   0.001100
 HP2                                   0.001100
 OB2                                   0.001100
 SW7                                   0.001100
 SW7.1                                 0.001100
 P1                                    0.001100
 P2                                    0.001100
 LE2                                   0.001100
 n155                                  0.001100
 n156                                  0.001100
 GO01                                  0.001100
 SO3.1                                 0.001100
 SO1                                   0.001100
 K3                                    0.001100
 J1                                    0.001100
 J2                                    0.001100
 SD10.1                                0.001100
 J3                                    0.001100
 J4                                    0.001100
 J5                                    0.001100
 J7                                    0.001100
 P3                                    0.001100
 J6                                    0.001100
 J8                                    0.001100
 J10                                   0.001100
 J11                                   0.001100
 J12                                   0.001100
 J13                                   0.001100
 J14                                   0.001100
 J15                                   0.001100
 J16                                   0.001100
 J17                                   0.001100
 J18                                   0.001100
 J19                                   0.001100
 J20                                   0.001100
 J21                                   0.001100
 J22                                   0.001100
 J23                                   0.001100
 J24                                   0.001100
 J25                                   0.001100
 J27                                   0.001100
 J28                                   0.001100
 J30                                   0.001100
 J31                                   0.001100
 J32                                   0.001100
 J34                                   0.001100
 J35                                   0.001100
 J36                                   0.001100
 J37                                   0.001100
 J38                                   0.001100
 J41                                   0.001100
 J42                                   0.001100

[STATUS]
 p150                            closed
 P126                            closed
 PMP2                            closed
 PMP1                            closed
Z_SD/GO                         closed
Z_SW/SO3                        closed
Z_SO/SD_PN                      closed
 Z9                              open
Z5                              closed

[PATTERNS]
 PT1                                   0.8000       0.7600       0.7400       0.7400       0.7600       0.8200
 PT1                                   0.9300       1.0800       1.1400       1.1700       1.1500       1.1300
 PT1                                   1.1400       1.1000       1.0800       1.0600       1.0500       1.0600
 PT1                                   1.0700       1.1400       1.1400       1.0900       1.0000       0.8700

[CURVES]
;PUMP: CR 10-12 A-A-A-E-HQQE
 C1                                    0.0000     123.8000
 C1                                    1.4400     123.3000
 C1                                    2.1000     116.1000
 C1                                    2.5800     105.5000
 C1                                    2.9700      94.1000
 C1                                    3.6500      70.4000

[CONTROLS]

[RULES]
RULE 1
IF   JUNCTION SD19 PRESSURE < 63.2000
AND  VALVE V2 SETTING = 40.0000
THEN VALVE V2 SETTING = 40.1000

RULE 2
IF   JUNCTION SD19 PRESSURE < 63.2000
AND  VALVE V2 SETTING = 40.1000
THEN VALVE V2 SETTING = 40.2000

RULE 3
IF   JUNCTION SD19 PRESSURE < 63.2000
AND  VALVE V2 SETTING = 40.2000
THEN VALVE V2 SETTING = 40.3000

RULE 4
IF   JUNCTION SD19 PRESSURE < 63.2000
AND  VALVE V2 SETTING = 40.3000
THEN VALVE V2 SETTING = 40.4000

RULE 5
IF   JUNCTION SD19 PRESSURE < 63.2000
AND  VALVE V2 SETTING = 40.4000
THEN VALVE V2 SETTING = 40.5000

RULE 6
IF   JUNCTION SD19 PRESSURE < 63.2000
AND  VALVE V2 SETTING = 40.5000
THEN VALVE V2 SETTING = 40.6000

RULE 7
IF   JUNCTION SD19 PRESSURE < 63.2000
AND  VALVE V2 SETTING = 40.6000
THEN VALVE V2 SETTING = 40.7000

RULE 8
IF   JUNCTION SD19 PRESSURE < 63.2000
AND  VALVE V2 SETTING = 40.7000
THEN VALVE V2 SETTING = 40.8000

RULE 9
IF   JUNCTION SD19 PRESSURE < 63.2000
AND  VALVE V2 SETTING = 40.8000
THEN VALVE V2 SETTING = 40.9000

RULE 10
IF   JUNCTION SD19 PRESSURE < 63.2000
AND  VALVE V2 SETTING = 40.9000
THEN VALVE V2 SETTING = 41.0000

RULE 11
IF   JUNCTION SD19 PRESSURE < 63.2000
AND  VALVE V2 SETTING = 41.0000
THEN VALVE V2 SETTING = 41.1000

RULE 12
IF   JUNCTION SD19 PRESSURE < 63.2000
AND  VALVE V2 SETTING = 41.1000
THEN VALVE V2 SETTING = 41.2000

RULE 13
IF   JUNCTION SD19 PRESSURE < 63.2000
AND  VALVE V2 SETTING = 41.2000
THEN VALVE V2 SETTING = 41.3000

RULE 14
IF   JUNCTION SD19 PRESSURE < 63.2000
AND  VALVE V2 SETTING = 41.3000
THEN VALVE V2 SETTING = 41.4000

RULE 15
IF   JUNCTION SD19 PRESSURE < 63.2000
AND  VALVE V2 SETTING = 41.4000
THEN VALVE V2 SETTING = 41.5000

RULE 16
IF   JUNCTION SD19 PRESSURE < 63.2000
AND  VALVE V2 SETTING = 41.5000
THEN VALVE V2 SETTING = 41.6000

RULE 17
IF   JUNCTION SD19 PRESSURE < 63.2000
AND  VALVE V2 SETTING = 41.6000
THEN VALVE V2 SETTING = 41.7000

RULE 18
IF   JUNCTION SD19 PRESSURE < 63.2000
AND  VALVE V2 SETTING = 41.7000
THEN VALVE V2 SETTING = 41.8000

RULE 19
IF   JUNCTION SD19 PRESSURE < 63.2000
AND  VALVE V2 SETTING = 41.8000
THEN VALVE V2 SETTING = 41.9000

RULE 20
IF   JUNCTION SD19 PRESSURE < 63.2000
AND  VALVE V2 SETTING = 41.9000
THEN VALVE V2 SETTING = 42.0000

RULE 21
IF   JUNCTION SD19 PRESSURE < 63.2000
AND  VALVE V2 SETTING = 42.0000
THEN VALVE V2 SETTING = 42.1000

RULE 100
IF   JUNCTION SD19 PRESSURE < 63.2000
AND  VALVE V2 SETTING = 42.1000
THEN VALVE V2 SETTING = 42.2000

RULE 23
IF   JUNCTION SD19 PRESSURE < 63.2000
AND  VALVE V2 SETTING = 42.2000
THEN VALVE V2 SETTING = 42.3000

RULE 24
IF   JUNCTION SD19 PRESSURE < 63.2000
AND  VALVE V2 SETTING = 42.3000
THEN VALVE V2 SETTING = 42.4000

RULE 25
IF   JUNCTION SD19 PRESSURE < 63.2000
AND  VALVE V2 SETTING = 42.4000
THEN VALVE V2 SETTING = 42.5000

RULE 26
IF   JUNCTION SD19 PRESSURE < 63.2000
AND  VALVE V2 SETTING = 42.5000
THEN VALVE V2 SETTING = 42.6000

RULE 27
IF   JUNCTION SD19 PRESSURE < 63.2000
AND  VALVE V2 SETTING = 42.6000
THEN VALVE V2 SETTING = 42.7000

RULE 28
IF   JUNCTION SD19 PRESSURE < 63.2000
AND  VALVE V2 SETTING = 42.7000
THEN VALVE V2 SETTING = 42.8000

RULE 29
IF   JUNCTION SD19 PRESSURE < 63.2000
AND  VALVE V2 SETTING = 42.8000
THEN VALVE V2 SETTING = 42.9000

RULE 30
IF   JUNCTION SD19 PRESSURE < 63.2000
AND  VALVE V2 SETTING = 42.9000
THEN VALVE V2 SETTING = 43.0000

RULE 31
IF   JUNCTION SD19 PRESSURE < 63.2000
AND  VALVE V2 SETTING = 43.0000
THEN VALVE V2 SETTING = 43.1000

RULE 32
IF   JUNCTION SD19 PRESSURE < 63.2000
AND  VALVE V2 SETTING = 43.1000
THEN VALVE V2 SETTING = 43.2000

RULE 33
IF   JUNCTION SD19 PRESSURE < 63.2000
AND  VALVE V2 SETTING = 43.2000
THEN VALVE V2 SETTING = 43.3000

RULE 34
IF   JUNCTION SD19 PRESSURE < 63.2000
AND  VALVE V2 SETTING = 43.3000
THEN VALVE V2 SETTING = 43.4000

RULE 35
IF   JUNCTION SD19 PRESSURE < 63.2000
AND  VALVE V2 SETTING = 43.4000
THEN VALVE V2 SETTING = 43.5000

RULE 36
IF   JUNCTION SD19 PRESSURE < 63.2000
AND  VALVE V2 SETTING = 43.5000
THEN VALVE V2 SETTING = 43.6000

RULE 37
IF   JUNCTION SD19 PRESSURE < 63.2000
AND  VALVE V2 SETTING = 43.6000
THEN VALVE V2 SETTING = 43.7000

RULE 38
IF   JUNCTION SD19 PRESSURE < 63.2000
AND  VALVE V2 SETTING = 43.7000
THEN VALVE V2 SETTING = 43.8000

RULE 39
IF   JUNCTION SD19 PRESSURE < 63.2000
AND  VALVE V2 SETTING = 43.8000
THEN VALVE V2 SETTING = 43.9000

RULE 40
IF   JUNCTION SD19 PRESSURE < 63.2000
AND  VALVE V2 SETTING = 43.9000
THEN VALVE V2 SETTING = 44.0000

RULE 41
IF   JUNCTION SD19 PRESSURE < 63.2000
AND  VALVE V2 SETTING = 44.0000
THEN VALVE V2 SETTING = 44.1000

RULE 42
IF   JUNCTION SD19 PRESSURE < 63.2000
AND  VALVE V2 SETTING = 44.1000
THEN VALVE V2 SETTING = 44.2000

RULE 43
IF   JUNCTION SD19 PRESSURE < 63.2000
AND  VALVE V2 SETTING = 44.2000
THEN VALVE V2 SETTING = 44.3000

RULE 44
IF   JUNCTION SD19 PRESSURE < 63.2000
AND  VALVE V2 SETTING = 44.3000
THEN VALVE V2 SETTING = 44.4000

RULE 45
IF   JUNCTION SD19 PRESSURE < 63.2000
AND  VALVE V2 SETTING = 44.4000
THEN VALVE V2 SETTING = 44.5000

RULE 46
IF   JUNCTION SD19 PRESSURE < 63.2000
AND  VALVE V2 SETTING = 44.5000
THEN VALVE V2 SETTING = 44.6000

RULE 47
IF   JUNCTION SD19 PRESSURE < 63.2000
AND  VALVE V2 SETTING = 44.6000
THEN VALVE V2 SETTING = 44.7000

RULE 48
IF   JUNCTION SD19 PRESSURE < 63.2000
AND  VALVE V2 SETTING = 44.7000
THEN VALVE V2 SETTING = 44.8000

RULE 49
IF   JUNCTION SD19 PRESSURE < 63.2000
AND  VALVE V2 SETTING = 44.8000
THEN VALVE V2 SETTING = 44.9000

RULE 50
IF   JUNCTION SD19 PRESSURE < 63.2000
AND  VALVE V2 SETTING = 44.9000
THEN VALVE V2 SETTING = 45.0000

RULE 51
IF   JUNCTION SD19 PRESSURE < 63.2000
AND  VALVE V2 SETTING = 45.0000
THEN VALVE V2 SETTING = 45.1000

RULE 52
IF   JUNCTION SD19 PRESSURE < 63.2000
AND  VALVE V2 SETTING = 45.1000
THEN VALVE V2 SETTING = 45.2000

RULE 53
IF   JUNCTION SD19 PRESSURE < 63.2000
AND  VALVE V2 SETTING = 45.2000
THEN VALVE V2 SETTING = 45.3000

RULE 54
IF   JUNCTION SD19 PRESSURE < 63.2000
AND  VALVE V2 SETTING = 45.3000
THEN VALVE V2 SETTING = 45.4000

RULE 55
IF   JUNCTION SD19 PRESSURE < 63.2000
AND  VALVE V2 SETTING = 45.4000
THEN VALVE V2 SETTING = 45.5000

RULE 56
IF   JUNCTION SD19 PRESSURE < 63.2000
AND  VALVE V2 SETTING = 45.5000
THEN VALVE V2 SETTING = 45.6000

RULE 57
IF   JUNCTION SD19 PRESSURE < 63.2000
AND  VALVE V2 SETTING = 45.6000
THEN VALVE V2 SETTING = 45.7000

RULE 58
IF   JUNCTION SD19 PRESSURE < 63.2000
AND  VALVE V2 SETTING = 45.7000
THEN VALVE V2 SETTING = 45.8000

RULE 59
IF   JUNCTION SD19 PRESSURE < 63.2000
AND  VALVE V2 SETTING = 45.8000
THEN VALVE V2 SETTING = 45.9000

RULE 60
IF   JUNCTION SD19 PRESSURE < 63.2000
AND  VALVE V2 SETTING = 45.9000
THEN VALVE V2 SETTING = 46.0000

RULE 61
IF   JUNCTION SD19 PRESSURE < 63.2000
AND  VALVE V2 SETTING = 46.0000
THEN VALVE V2 SETTING = 46.1000

RULE 62
IF   JUNCTION SD19 PRESSURE < 63.2000
AND  VALVE V2 SETTING = 46.1000
THEN VALVE V2 SETTING = 46.2000

RULE 63
IF   JUNCTION SD19 PRESSURE < 63.2000
AND  VALVE V2 SETTING = 46.2000
THEN VALVE V2 SETTING = 46.3000

RULE 64
IF   JUNCTION SD19 PRESSURE < 63.2000
AND  VALVE V2 SETTING = 46.3000
THEN VALVE V2 SETTING = 46.4000

RULE 65
IF   JUNCTION SD19 PRESSURE < 63.2000
AND  VALVE V2 SETTING = 46.4000
THEN VALVE V2 SETTING = 46.5000

RULE 66
IF   JUNCTION SD19 PRESSURE < 63.2000
AND  VALVE V2 SETTING = 46.5000
THEN VALVE V2 SETTING = 46.6000

RULE 67
IF   JUNCTION SD19 PRESSURE < 63.2000
AND  VALVE V2 SETTING = 46.6000
THEN VALVE V2 SETTING = 46.7000

RULE 68
IF   JUNCTION SD19 PRESSURE < 63.2000
AND  VALVE V2 SETTING = 46.7000
THEN VALVE V2 SETTING = 46.8000

RULE 69
IF   JUNCTION SD19 PRESSURE < 63.2000
AND  VALVE V2 SETTING = 46.8000
THEN VALVE V2 SETTING = 46.9000

RULE 70
IF   JUNCTION SD19 PRESSURE < 63.2000
AND  VALVE V2 SETTING = 46.9000
THEN VALVE V2 SETTING = 47.0000

RULE 71
IF   JUNCTION SD19 PRESSURE < 63.2000
AND  VALVE V2 SETTING = 47.0000
THEN VALVE V2 SETTING = 47.1000

RULE 72
IF   JUNCTION SD19 PRESSURE < 63.2000
AND  VALVE V2 SETTING = 47.1000
THEN VALVE V2 SETTING = 47.2000

RULE 73
IF   JUNCTION SD19 PRESSURE < 63.2000
AND  VALVE V2 SETTING = 47.2000
THEN VALVE V2 SETTING = 47.3000

RULE 74
IF   JUNCTION SD19 PRESSURE < 63.2000
AND  VALVE V2 SETTING = 47.3000
THEN VALVE V2 SETTING = 47.4000

RULE 75
IF   JUNCTION SD19 PRESSURE < 63.2000
AND  VALVE V2 SETTING = 47.4000
THEN VALVE V2 SETTING = 47.5000

RULE 76
IF   JUNCTION SD19 PRESSURE < 63.2000
AND  VALVE V2 SETTING = 47.5000
THEN VALVE V2 SETTING = 47.6000

RULE 77
IF   JUNCTION SD19 PRESSURE < 63.2000
AND  VALVE V2 SETTING = 47.6000
THEN VALVE V2 SETTING = 47.7000

RULE 78
IF   JUNCTION SD19 PRESSURE < 63.2000
AND  VALVE V2 SETTING = 47.7000
THEN VALVE V2 SETTING = 47.8000

RULE 79
IF   JUNCTION SD19 PRESSURE < 63.2000
AND  VALVE V2 SETTING = 47.8000
THEN VALVE V2 SETTING = 47.9000

RULE 80
IF   JUNCTION SD19 PRESSURE < 63.2000
AND  VALVE V2 SETTING = 47.9000
THEN VALVE V2 SETTING = 48.0000

RULE 81
IF   JUNCTION SD19 PRESSURE < 63.2000
AND  VALVE V2 SETTING = 48.0000
THEN VALVE V2 SETTING = 48.1000

RULE 82
IF   JUNCTION SD19 PRESSURE < 63.2000
AND  VALVE V2 SETTING = 48.1000
THEN VALVE V2 SETTING = 48.2000

RULE 83
IF   JUNCTION SD19 PRESSURE < 63.2000
AND  VALVE V2 SETTING = 48.2000
THEN VALVE V2 SETTING = 48.3000

RULE 84
IF   JUNCTION SD19 PRESSURE < 63.2000
AND  VALVE V2 SETTING = 48.3000
THEN VALVE V2 SETTING = 48.4000

RULE 85
IF   JUNCTION SD19 PRESSURE < 63.2000
AND  VALVE V2 SETTING = 48.4000
THEN VALVE V2 SETTING = 48.5000

RULE 86
IF   JUNCTION SD19 PRESSURE < 63.2000
AND  VALVE V2 SETTING = 48.5000
THEN VALVE V2 SETTING = 48.6000

RULE 87
IF   JUNCTION SD19 PRESSURE < 63.2000
AND  VALVE V2 SETTING = 48.6000
THEN VALVE V2 SETTING = 48.7000

RULE 88
IF   JUNCTION SD19 PRESSURE < 63.2000
AND  VALVE V2 SETTING = 48.7000
THEN VALVE V2 SETTING = 48.8000

RULE 89
IF   JUNCTION SD19 PRESSURE < 63.2000
AND  VALVE V2 SETTING = 48.8000
THEN VALVE V2 SETTING = 48.9000

RULE 90
IF   JUNCTION SD19 PRESSURE < 63.2000
AND  VALVE V2 SETTING = 48.9000
THEN VALVE V2 SETTING = 49.0000

RULE 91
IF   JUNCTION SD19 PRESSURE < 63.2000
AND  VALVE V2 SETTING = 49.0000
THEN VALVE V2 SETTING = 49.1000

RULE 92
IF   JUNCTION SD19 PRESSURE < 63.2000
AND  VALVE V2 SETTING = 49.1000
THEN VALVE V2 SETTING = 49.2000

RULE 93
IF   JUNCTION SD19 PRESSURE < 63.2000
AND  VALVE V2 SETTING = 49.2000
THEN VALVE V2 SETTING = 49.3000

RULE 94
IF   JUNCTION SD19 PRESSURE < 63.2000
AND  VALVE V2 SETTING = 49.3000
THEN VALVE V2 SETTING = 49.4000

RULE 95
IF   JUNCTION SD19 PRESSURE < 63.2000
AND  VALVE V2 SETTING = 49.4000
THEN VALVE V2 SETTING = 49.5000

RULE 96
IF   JUNCTION SD19 PRESSURE < 63.2000
AND  VALVE V2 SETTING = 49.5000
THEN VALVE V2 SETTING = 49.6000

RULE 97
IF   JUNCTION SD19 PRESSURE < 63.2000
AND  VALVE V2 SETTING = 49.6000
THEN VALVE V2 SETTING = 49.7000

RULE 98
IF   JUNCTION SD19 PRESSURE < 63.2000
AND  VALVE V2 SETTING = 49.7000
THEN VALVE V2 SETTING = 49.8000

RULE 99
IF   JUNCTION SD19 PRESSURE < 63.2000
AND  VALVE V2 SETTING = 49.8000
THEN VALVE V2 SETTING = 49.9000

RULE 100
IF   JUNCTION SD19 PRESSURE < 63.2000
AND  VALVE V2 SETTING = 49.9000
THEN VALVE V2 SETTING = 50.0000

RULE 101
IF   JUNCTION SD19 PRESSURE > 63.3000
AND  VALVE V2 SETTING = 50.0000
THEN VALVE V2 SETTING = 49.9000

RULE 102
IF   JUNCTION SD19 PRESSURE > 63.3000
AND  VALVE V2 SETTING = 49.9000
THEN VALVE V2 SETTING = 49.8000

RULE 103
IF   JUNCTION SD19 PRESSURE > 63.3000
AND  VALVE V2 SETTING = 49.8000
THEN VALVE V2 SETTING = 49.7000

RULE 104
IF   JUNCTION SD19 PRESSURE > 63.3000
AND  VALVE V2 SETTING = 49.7000
THEN VALVE V2 SETTING = 49.6000

RULE 105
IF   JUNCTION SD19 PRESSURE > 63.3000
AND  VALVE V2 SETTING = 49.6000
THEN VALVE V2 SETTING = 49.5000

RULE 106
IF   JUNCTION SD19 PRESSURE > 63.3000
AND  VALVE V2 SETTING = 49.5000
THEN VALVE V2 SETTING = 49.4000

RULE 107
IF   JUNCTION SD19 PRESSURE > 63.3000
AND  VALVE V2 SETTING = 49.4000
THEN VALVE V2 SETTING = 49.3000

RULE 108
IF   JUNCTION SD19 PRESSURE > 63.3000
AND  VALVE V2 SETTING = 49.3000
THEN VALVE V2 SETTING = 49.2000

RULE 109
IF   JUNCTION SD19 PRESSURE > 63.3000
AND  VALVE V2 SETTING = 49.2000
THEN VALVE V2 SETTING = 49.1000

RULE 110
IF   JUNCTION SD19 PRESSURE > 63.3000
AND  VALVE V2 SETTING = 49.1000
THEN VALVE V2 SETTING = 49.0000

RULE 111
IF   JUNCTION SD19 PRESSURE > 63.3000
AND  VALVE V2 SETTING = 49.0000
THEN VALVE V2 SETTING = 48.9000

RULE 112
IF   JUNCTION SD19 PRESSURE > 63.3000
AND  VALVE V2 SETTING = 48.9000
THEN VALVE V2 SETTING = 48.8000

RULE 113
IF   JUNCTION SD19 PRESSURE > 63.3000
AND  VALVE V2 SETTING = 48.8000
THEN VALVE V2 SETTING = 48.7000

RULE 114
IF   JUNCTION SD19 PRESSURE > 63.3000
AND  VALVE V2 SETTING = 48.7000
THEN VALVE V2 SETTING = 48.6000

RULE 115
IF   JUNCTION SD19 PRESSURE > 63.3000
AND  VALVE V2 SETTING = 48.6000
THEN VALVE V2 SETTING = 48.5000

RULE 116
IF   JUNCTION SD19 PRESSURE > 63.3000
AND  VALVE V2 SETTING = 48.5000
THEN VALVE V2 SETTING = 48.4000

RULE 117
IF   JUNCTION SD19 PRESSURE > 63.3000
AND  VALVE V2 SETTING = 48.4000
THEN VALVE V2 SETTING = 48.3000

RULE 118
IF   JUNCTION SD19 PRESSURE > 63.3000
AND  VALVE V2 SETTING = 48.3000
THEN VALVE V2 SETTING = 48.2000

RULE 119
IF   JUNCTION SD19 PRESSURE > 63.3000
AND  VALVE V2 SETTING = 48.2000
THEN VALVE V2 SETTING = 48.1000

RULE 120
IF   JUNCTION SD19 PRESSURE > 63.3000
AND  VALVE V2 SETTING = 48.1000
THEN VALVE V2 SETTING = 48.0000

RULE 121
IF   JUNCTION SD19 PRESSURE > 63.3000
AND  VALVE V2 SETTING = 48.0000
THEN VALVE V2 SETTING = 47.9000

RULE 1100
IF   JUNCTION SD19 PRESSURE > 63.3000
AND  VALVE V2 SETTING = 47.9000
THEN VALVE V2 SETTING = 47.8000

RULE 123
IF   JUNCTION SD19 PRESSURE > 63.3000
AND  VALVE V2 SETTING = 47.8000
THEN VALVE V2 SETTING = 47.7000

RULE 124
IF   JUNCTION SD19 PRESSURE > 63.3000
AND  VALVE V2 SETTING = 47.7000
THEN VALVE V2 SETTING = 47.6000

RULE 125
IF   JUNCTION SD19 PRESSURE > 63.3000
AND  VALVE V2 SETTING = 47.6000
THEN VALVE V2 SETTING = 47.5000

RULE 126
IF   JUNCTION SD19 PRESSURE > 63.3000
AND  VALVE V2 SETTING = 47.5000
THEN VALVE V2 SETTING = 47.4000

RULE 127
IF   JUNCTION SD19 PRESSURE > 63.3000
AND  VALVE V2 SETTING = 47.4000
THEN VALVE V2 SETTING = 47.3000

RULE 128
IF   JUNCTION SD19 PRESSURE > 63.3000
[...]
 p73                             3690984.717000 5508016.302000
 p73                             3690982.947000 5508008.706000
 p73                             3690982.947000 5508004.146000
 p73                             3690985.170000 5507999.792000
 p73                             3690991.054000 5507992.034000
 p74                             3690873.508000 5508399.943000
 p75                             3690942.297000 5508339.334000
 p75                             3690968.235000 5508312.693000
 p75                             3690992.210000 5508286.141000
 p75                             3691016.131000 5508258.841000
 p75                             3691029.549000 5508243.157000
 p75                             3691046.219000 5508222.828000
 p75                             3691054.311000 5508213.473000
 p75                             3691064.554000 5508202.260000
 p75                             3691078.171000 5508189.215000
 p77                             3691091.737000 5508176.426000
 p77                             3691099.440000 5508169.422000
 p77                             3691114.862000 5508155.312000
 p77                             3691132.496000 5508142.227000
 p84                             3691193.024000 5508096.698000
 p84                             3691206.202000 5508088.561000
 p85                             3691294.666000 5508056.682000
 p86                             3691293.716000 5508052.738000
 p86                             3691289.023000 5508049.352000
 p86                             3691282.849000 5508039.323000
 p86                             3691278.960000 5508032.611000
 p86                             3691276.738000 5508030.380000
 p86                             3691267.999000 5508028.381000
 p86                             3691246.391000 5508025.346000
 p86                             3691230.289000 5508022.313000
 p87                             3690965.100000 5507976.250000
 p87                             3690953.275000 5507972.540000
 p87                             3690941.315000 5507965.163000
 p87                             3690933.048000 5507959.913000
 p87                             3690918.391000 5507944.771000
 p89                             3691310.088000 5508049.549000
 p89                             3691310.088000 5508049.601000
 p90                             3691327.679000 5508036.871000
 p90                             3691342.167000 5508027.062000
 p91                             3691361.919000 5508009.955000
 p92                             3691161.589000 5508010.947000
 p92                             3691142.766000 5508007.642000
 p92                             3691134.842000 5508006.557000
 p92                             3691128.930000 5508005.541000
 p93                             3691082.992000 5507997.654000
 p93                             3691076.923000 5507997.014000
 p93                             3691064.223000 5507994.076000
 p93                             3691039.862000 5507990.637000
 p93                             3691010.390000 5507985.701000
 p95                             3691347.921000 5507997.753000
 p95                             3691337.261000 5507991.858000
 p96                             3691369.394000 5507999.878000
 p96                             3691375.981000 5507990.546000
 p96                             3691384.764000 5507971.444000
 p96                             3691388.842000 5507960.170000
 p96                             3691394.948000 5507942.839000
 p96                             3691399.421000 5507928.918000
 p96                             3691406.396000 5507907.051000
 p96                             3691413.276000 5507886.509000
 p96                             3691429.459000 5507839.235000
 p98                             3691449.940000 5507777.149000
 p98                             3691456.346000 5507757.660000
 p98                             3691461.701000 5507741.359000
 p98                             3691465.922000 5507729.612000
 p98                             3691472.106000 5507710.154000
 p99                             3691480.009000 5507685.539000
 p99                             3691490.018000 5507656.605000
 p99                             3691507.171000 5507606.683000
 p99                             3691514.814000 5507585.982000
 p99                             3691518.286000 5507575.969000
 p99                             3691520.740000 5507567.983000
 p100                            3691524.847000 5507555.549000
 p100                            3691524.691000 5507541.666000
 p100                            3691535.516000 5507508.367000
 p100                            3691550.525000 5507461.273000
 p102                            3691432.144000 5507776.828000
 p102                            3691415.330000 5507771.217000
 p102                            3691410.467000 5507769.178000
 p102                            3691406.157000 5507766.664000
 p102                            3691403.600000 5507764.156000
 p103                            3691658.365000 5507258.345000
 p105                            3691914.427000 5507690.444000
 p105                            3691911.073000 5507670.364000
 p105                            3691907.318000 5507663.332000
 p105                            3691903.316000 5507658.833000
 p105                            3691891.498000 5507652.055000
 p105                            3691873.467000 5507644.634000
 p105                            3691862.980000 5507637.848000
 p105                            3691858.927000 5507631.678000
 p105                            3691856.350000 5507624.983000
 p105                            3691856.087000 5507624.440000
 p105                            3691854.974000 5507611.515000
 p105                            3691856.943000 5507585.308000
 p105                            3691855.887000 5507560.464000
 p105                            3691859.837000 5507530.615000
 p106                            3691822.826000 5507395.625000
 p106                            3691803.575000 5507383.005000
 p106                            3691781.571000 5507370.471000
 p106                            3691756.315000 5507356.246000
 p106                            3691739.507000 5507345.287000
 p106                            3691738.226000 5507342.990000
 p106                            3691737.667000 5507335.125000
 p106                            3691728.831000 5507330.328000
 p106                            3691716.059000 5507322.073000
 p106                            3691696.514000 5507306.455000
 p108                            3691539.787000 5507956.701000
 p108                            3691542.939000 5507920.627000
 p108                            3691543.749000 5507916.895000
 p108                            3691563.910000 5507862.328000
 p108                            3691575.211000 5507835.241000
 p108                            3691590.620000 5507796.397000
 p109                            3691687.394000 5507339.765000
 p110                            3691615.179000 5507732.739000
 p110                            3691629.315000 5507697.950000
 p110                            3691633.965000 5507685.394000
 p110                            3691634.894000 5507682.597000
 p110                            3691639.393000 5507670.428000
 p110                            3691649.598000 5507617.559000
 p110                            3691659.981000 5507580.621000
 p111                            3691683.087000 5507488.335000
 p111                            3691699.583000 5507415.305000
 p111                            3691699.583000 5507403.077000
 p111                            3691696.377000 5507385.777000
 p112                            3692176.929000 5507482.013000
 p112                            3692170.784000 5507468.989000
 p112                            3692163.260000 5507455.206000
 p112                            3692147.547000 5507418.572000
 p112                            3692133.619000 5507386.102000
 p112                            3692118.898000 5507355.600000
 p112                            3692112.767000 5507342.583000
 p113                            3692148.918000 5507324.699000
 p113                            3692136.250000 5507319.869000
 p115                            3692094.310000 5507270.039000
 p116                            3692103.265000 5507256.518000
 p117                            3692117.947000 5507251.369000
 p117                            3692132.844000 5507237.563000
 p117                            3692138.844000 5507222.412000
 p117                            3692130.885000 5507191.062000
 p117                            3692111.381000 5507162.744000
 p117                            3692108.602000 5507155.635000
 p117                            3692099.101000 5507143.954000
 p118                            3692087.811000 5507135.200000
 p118                            3692065.156000 5507116.962000
 p118                            3692043.503000 5507099.718000
 p118                            3692023.269000 5507083.635000
 p119                            3691983.198000 5507066.876000
 p119                            3691883.051000 5507066.876000
 p119                            3691875.648000 5507050.809000
 p124                            3691818.803000 5507072.406000
 p124                            3691796.379000 5507082.202000
 p124                            3691776.219000 5507098.462000
 p124                            3691753.698000 5507097.716000
 p125                            3691704.852000 5507080.454000
 p125                            3691702.330000 5507084.885000
 p129                            3691616.579000 5507239.837000
 p129                            3691626.962000 5507206.203000
 p129                            3691637.998000 5507174.346000
 p129                            3691649.995000 5507179.396000
 p129                            3691654.197000 5507171.077000
 p129                            3691661.098000 5507157.416000
 p129                            3691670.124000 5507137.072000
 p129                            3691678.902000 5507118.951000
 p130                            3691235.394000 5508081.436000
 p130                            3691246.381000 5508077.086000
 p130                            3691260.889000 5508071.163000
 p132                            3691680.548000 5507275.937000
 p132                            3691678.529000 5507256.913000
 p133                            3691664.882000 5507237.152000
 p133                            3691665.634000 5507235.527000
 p133                            3691668.293000 5507233.707000
 p134                            3691671.249000 5507214.749000
 p134                            3691669.480000 5507199.162000
 p134                            3691673.146000 5507186.268000
 p136                            3691712.825000 5507050.442000
 p138                            3691719.287000 5507012.354000
 p139                            3691726.348000 5506995.307000
 p139                            3691701.356000 5506940.997000
 p140                            3691679.892000 5506903.426000
 p140                            3691678.270000 5506898.377000
 p140                            3691671.641000 5506886.565000
 p140                            3691662.561000 5506873.282000
 p142                            3691673.737000 5506837.195000
 p142                            3691680.825000 5506832.244000
 p142                            3691687.996000 5506830.172000
 p142                            3691697.859000 5506829.710000
 p142                            3691707.491000 5506834.097000
 p143                            3691719.668000 5506841.539000
 p143                            3691738.886000 5506853.802000
 p143                            3691767.285000 5506872.245000
 p143                            3691777.583000 5506878.648000
 p144                            3691784.051000 5506880.270000
 p144                            3691828.160000 5506901.722000
 p144                            3691871.353000 5506922.366000
 p145                            3691919.610000 5506918.601000
 p145                            3691925.537000 5506903.294000
 p145                            3691928.480000 5506892.789000
 p145                            3691930.201000 5506877.322000
 p145                            3691932.040000 5506874.368000
 p145                            3691940.010000 5506870.488000
 p145                            3691944.558000 5506864.660000
 p145                            3691949.888000 5506860.940000
 p145                            3691961.254000 5506857.511000
 p145                            3691974.876000 5506852.324000
 p147                            3690504.408000 5508903.649000
 p147                            3690513.095000 5508885.148000
 p147                            3690517.473000 5508880.772000
 p147                            3690525.783000 5508874.969000
 p147                            3690530.702000 5508868.238000
 p151                            3691403.008000 5507760.304000
 p154                            3691581.223000 5507377.684000
 p154                            3691584.360000 5507363.216000
 p154                            3691603.562000 5507286.832000
 p155                            3692083.953000 5507253.971000
 p155                            3692074.127000 5507245.988000
 p155                            3692064.990000 5507241.648000
 p157                            3691864.058000 5507485.994000
 p157                            3691860.405000 5507464.253000
 p157                            3691852.782000 5507439.866000
 p157                            3691845.154000 5507423.044000
 p157                            3691837.750000 5507411.649000
 p157                            3691834.705000 5507404.220000
 p159                            3691772.260000 5508753.070000
 p159                            3691728.764000 5508738.881000
 p159                            3691725.061000 5508728.782000
 p159                            3691719.572000 5508726.677000
 p159                            3691675.052000 5508713.731000
 p159                            3691636.629000 5508682.059000
 p159                            3691616.109000 5508669.647000
 p159                            3691547.992000 5508607.055000
 p159                            3691516.405000 5508577.526000
 p159                            3691501.509000 5508555.995000
 p159                            3691492.439000 5508530.815000
 p159                            3691485.968000 5508508.840000
 p159                            3691478.678000 5508458.702000
 p159                            3691468.685000 5508413.119000
 p159                            3691448.719000 5508339.145000
 p159                            3691444.775000 5508321.794000
 p159                            3691439.461000 5508320.515000
 p159                            3691436.094000 5508304.972000
 p162                            3691717.237000 5507020.176000
 Z12                             3691722.147000 5507088.191000

[TAGS]
 LINK 	p1              	PE160
 LINK 	p2              	PE160
 LINK 	p4              	PE50
 LINK 	p5              	eliwo
 LINK 	p6              	PE225
 LINK 	p7              	PE63
 LINK 	p8              	eliwo
 LINK 	p9              	eliwo
 LINK 	p10             	PE63
 LINK 	p11             	eliwo
 LINK 	p12             	PE110
 LINK 	p15             	PE160
 LINK 	p16             	PE160
 LINK 	p17             	PE160
 LINK 	p18             	eliwo
 LINK 	p19             	PE90
 LINK 	p20             	PE110
 LINK 	p21             	PE110
 LINK 	p23             	eliwo
 LINK 	p24             	eliwo
 LINK 	p26             	PE90
 LINK 	p27             	eliwo
 LINK 	p28             	PE110
 LINK 	p31             	PE110
 LINK 	p33             	PE110
 LINK 	p34             	eliwo
 LINK 	p35             	PE110
 LINK 	p36             	PE110
 LINK 	p37             	eliwo
 LINK 	p38             	PE225
 LINK 	p39             	PE160
 LINK 	p40             	eliwo
 LINK 	p41             	eliwo
 LINK 	p42             	eliwo
 LINK 	p43             	eliwo
 LINK 	p44             	eliwo
 LINK 	p45             	eliwo
 LINK 	p46             	eliwo
 LINK 	p47             	eliwo
 LINK 	p48             	eliwo
 LINK 	p49             	PE225
 LINK 	p50             	PE225
 LINK 	p51             	PE225
 LINK 	p55             	PE225
 LINK 	p57             	PE160
 LINK 	p58             	eliwo
 LINK 	p59             	eliwo
 LINK 	p60             	eliwo
 LINK 	p61             	PE90
 LINK 	p62             	PE90
 LINK 	p63             	eliwo
 LINK 	p64             	eliwo
 LINK 	p65             	eliwo
 LINK 	p66             	eliwo
 LINK 	p67             	eliwo
 LINK 	p68             	eliwo
 LINK 	p70             	eliwo
 LINK 	p71             	eliwo
 LINK 	p72             	eliwo
 LINK 	p73             	eliwo
 LINK 	p74             	eliwo
 LINK 	p75             	eliwo
 LINK 	p76             	PE225
 LINK 	p77             	PE225
 LINK 	p79             	PE225
 LINK 	p80             	PE225
 LINK 	p83             	PE90
 LINK 	p84             	eliwo
 LINK 	p85             	PE225
 LINK 	p86             	PE110
 LINK 	p87             	PE110
 LINK 	p89             	PE225
 LINK 	p90             	eliwo
 LINK 	p91             	eliwo
 LINK 	p92             	PE110
 LINK 	p93             	PE110
 LINK 	p95             	PE63
 LINK 	p96             	eliwo
 LINK 	p97             	eliwo
 LINK 	p98             	eliwo
 LINK 	p99             	eliwo
 LINK 	p100            	eliwo
 LINK 	p102            	PE63
 LINK 	p103            	PE63
 LINK 	p105            	PE63
 LINK 	p106            	PE63
 LINK 	p107            	PE63
 LINK 	p108            	eliwo
 LINK 	p109            	eliwo
 LINK 	p110            	eliwo
 LINK 	p111            	eliwo
 LINK 	p112            	eliwo
 LINK 	p113            	eliwo
 LINK 	p114            	eliwo
 LINK 	p115            	eliwo
 LINK 	p116            	eliwo
 LINK 	p117            	PE90
 LINK 	p118            	PE90
 LINK 	p119            	PE110
 LINK 	p120            	PE160
 LINK 	p123            	PE160
 LINK 	p124            	PE160
 LINK 	p125            	PE160
 LINK 	p127            	PE160
 LINK 	p129            	PE180
 LINK 	p130            	eliwo
 LINK 	p132            	eliwo
 LINK 	p133            	eliwo
 LINK 	p134            	eliwo
 LINK 	p135            	eliwo
 LINK 	p136            	PE225
 LINK 	p137            	PE160
 LINK 	p138            	PE160
 LINK 	p139            	eliwo
 LINK 	p140            	PE225
 LINK 	p142            	PE110
 LINK 	p143            	PE110
 LINK 	p144            	PE110
 LINK 	p145            	PVC90
 LINK 	p146            	PE63
 LINK 	p147            	PE63
 LINK 	p150            	PE110
 LINK 	p151            	PE63
 LINK 	p152            	PE225
 LINK 	p153            	PE160
 LINK 	p154            	eliwo
 LINK 	p155            	eliwo
 LINK 	p157            	PE63
 LINK 	p158            	PE110
 LINK 	p159            	PE160
 LINK 	p162            	PE160
 LINK 	p163            	PE160
 LINK 	p227            	PE110
 LINK 	P88             	PE160
 LINK 	P104            	PE160
 LINK 	P131            	PE225
 LINK 	P53             	PE160
 LINK 	P25             	PE110
 LINK 	P81             	PE110
 LINK 	P122            	PE110
 LINK 	P22             	PE225
 LINK 	P121            	eliwo
 LINK 	P126            	PE110
 LINK 	P148            	PE160
 LINK 	P69             	eliwo

[LABELS]
;X-Coord             Y-Coord             Label & Anchor Node
3691461.433       	5508335.742       	"R2"	
3689972.450       	5509695.899       	"R1"	
3691582.577       	5508342.515       	"J2"	J2
3690083.673       	5509694.772       	"RED1"	RED1

[BACKDROP]
  DIMENSIONS  	3689394.000       	5505897.000       	3692769.000       	5509901.000       
 UNITS          	None
 FILE           	
 OFFSET         	0.00            	0.00            

[END]
